/*--------------------------------*- C++ -*----------------------------------*\
  =========                 |
  \\      /  F ield         | OpenFOAM: The Open Source CFD Toolbox
   \\    /   O peration     | Website:  https://openfoam.org
    \\  /    A nd           | Version:  13
     \\/     M anipulation  |
\*---------------------------------------------------------------------------*/
FoamFile
{
    version     2.0;
    format      ascii;
    class       dictionary;
    location    "system";
    object      fvSchemes;
}
// * * * * * * * * * * * * * * * * * * * * * * * * * * * * * * * * * * * * * //

// Time derivative schemes
ddtSchemes
{
    default         steadyState;
}

// Gradient schemes
gradSchemes
{
    default         Gauss linear;
    grad(U)         cellLimited Gauss linear 1;
}

// Divergence schemes
divSchemes
{
    default         none;
    div(phi,U)      bounded Gauss linearUpwind grad(U);
    div(phi,k)      bounded Gauss upwind;
    div(phi,epsilon) bounded Gauss upwind;
    div((nuEff*dev2(T(grad(U))))) Gauss linear;
}

// Laplacian schemes
laplacianSchemes
{
    default         Gauss linear corrected;
}

// Interpolation schemes
interpolationSchemes
{
    default         linear;
}

// Surface normal gradient schemes
snGradSchemes
{
    default         corrected;
}

// Wall distance calculation
wallDist
{
    method          meshWave;
}

// ************************************************************************* //
